Version 4.1
SHEET 1 880 680
WIRE 384 0 112 0
WIRE 112 112 112 0
WIRE 144 112 112 112
WIRE 144 144 -64 144
WIRE 272 160 256 160
WIRE 384 160 384 80
WIRE 384 160 352 160
WIRE -64 176 -64 144
WIRE 144 176 80 176
WIRE 352 176 352 160
WIRE 144 208 112 208
WIRE 384 240 384 160
WIRE 80 256 80 176
WIRE 272 256 272 160
WIRE 272 256 80 256
WIRE 112 336 112 208
WIRE 384 336 384 320
WIRE 384 336 112 336
FLAG 352 176 0
FLAG -64 256 0
FLAG 272 160 Vo
IOPIN 272 160 Out
SYMBOL voltage 384 -16 R0
WINDOW 123 0 0 Left 0
WINDOW 39 0 0 Left 0
SYMATTR InstName V1
SYMATTR Value 2.5
SYMBOL voltage 384 224 R0
WINDOW 123 0 0 Left 0
WINDOW 39 0 0 Left 0
SYMATTR InstName V2
SYMATTR Value 2.5
SYMBOL voltage -64 160 R0
WINDOW 123 24 124 Left 2
WINDOW 39 0 0 Left 0
WINDOW 3 -181 158 Left 2
SYMATTR Value2 AC 0 0
SYMATTR Value PULSE(-1 1 100n 100n 100n 400n 1u 10)
SYMATTR InstName V3
SYMBOL main_schematic 192 160 R0
SYMATTR InstName X1
TEXT -56 -48 Left 2 !.tran 10u
