Version 4.1
SHEET 1 880 680
WIRE 384 0 112 0
WIRE 112 112 112 0
WIRE 144 112 112 112
WIRE 144 144 -32 144
WIRE -32 160 -32 144
WIRE 272 160 256 160
WIRE 384 160 384 80
WIRE 384 160 352 160
WIRE 128 176 96 176
WIRE 144 176 128 176
WIRE 352 176 352 160
WIRE 144 208 112 208
WIRE 384 240 384 160
WIRE 16 256 16 176
WIRE 128 288 128 176
WIRE 192 288 128 288
WIRE 272 288 272 160
WIRE 112 336 112 208
WIRE 384 336 384 320
WIRE 384 336 112 336
FLAG 352 176 0
FLAG 272 160 Vo
IOPIN 272 160 Out
FLAG -32 160 0
FLAG 16 336 0
SYMBOL voltage 384 -16 R0
WINDOW 123 0 0 Left 0
WINDOW 39 0 0 Left 0
SYMATTR InstName V1
SYMATTR Value 2.5
SYMBOL voltage 384 224 R0
WINDOW 123 0 0 Left 0
WINDOW 39 0 0 Left 0
SYMATTR InstName V2
SYMATTR Value 2.5
SYMBOL voltage 16 240 R0
WINDOW 123 0 0 Left 0
WINDOW 39 0 0 Left 0
SYMATTR InstName V3
SYMATTR Value 0
SYMBOL res 288 272 R90
WINDOW 0 0 56 VBottom 2
WINDOW 3 32 56 VTop 2
SYMATTR InstName R1
SYMATTR Value 10g
SYMBOL res 112 160 R90
WINDOW 0 0 56 VBottom 2
WINDOW 3 32 56 VTop 2
SYMATTR InstName R2
SYMATTR Value 1g
SYMBOL main_schematic 192 160 R0
SYMATTR InstName X1
TEXT -72 8 Left 2 !.dc V3 -2.5 3.5 0.01
